Circuit: * C:\Users\pavlos\AppData\Local\LTspice\my\schematics\Hybrid\XOR\xor_block.asc

Questionable use of curly braces in "bpm 1 2  i={(v(1)-v(2))/(({{fo}}*exp(2*({lo}-{lo}*{m}/(v(r)))))/({lo}-{lo}*{m}/(v(r))))}"
    Error: undefined symbol in: "([v](1)-v(2))/((((fo))*exp(2*((lo)-(lo)*(m)/(v(r)))))/((lo)-(lo)*(m)/(v(r))))"
Questionable use of curly braces in "br 0 r  i={(-{alpha}*(((v(1)-v(2))-{vtl})/({gamma}+abs((v(1)-v(2))-{vtl})))*u(-(v(1)-v(2))+{vtl})-{beta}*(v(1)-v(2))*u((v(1)-v(2))-{vtl})*u(-(v(1)-v(2))+{vtr})-{alpha}*(((v(1)-v(2))-{vtr})/({gamma}+abs((v(1)-v(2))-{vtr})))*u((v(1)-v(2))-{vtr}))*(u(v(1)-v(2))*u(v(r)-{{rmin}})+u(-(v(1)-v(2)))*u({{rmax}}-v(r)))}"
    Error: undefined symbol in: "(-(alpha)*((([v](1)-v(2))-(vtl))/((gamma)+abs((v(1)-v(2))-(vtl))))*u(-(v(1)-v(2))+(vtl))-(beta)*(v(1)-v(2))*u((v(1)-v(2))-(vtl))*u(-(v(1)-v(2))+(vtr))-(alpha)*(((v(1)-v(2))-(vtr))/((gamma)+abs((v(1)-v(2))-(vtr))))*u((v(1)-v(2))-(vtr)))*(u(v(1)-v(2))*u(v(r)-((rmin)))+u(-(v(1)-v(2)))*u(((rmax))-v(r)))"
Questionable use of curly braces in "bpm 1 2  i={(v(1)-v(2))/(({{fo}}*exp(2*({lo}-{lo}*{m}/(v(r)))))/({lo}-{lo}*{m}/(v(r))))}"
    Error: undefined symbol in: "([v](1)-v(2))/((((fo))*exp(2*((lo)-(lo)*(m)/(v(r)))))/((lo)-(lo)*(m)/(v(r))))"
Questionable use of curly braces in "br 0 r  i={(-{alpha}*(((v(1)-v(2))-{vtl})/({gamma}+abs((v(1)-v(2))-{vtl})))*u(-(v(1)-v(2))+{vtl})-{beta}*(v(1)-v(2))*u((v(1)-v(2))-{vtl})*u(-(v(1)-v(2))+{vtr})-{alpha}*(((v(1)-v(2))-{vtr})/({gamma}+abs((v(1)-v(2))-{vtr})))*u((v(1)-v(2))-{vtr}))*(u(v(1)-v(2))*u(v(r)-{{rmin}})+u(-(v(1)-v(2)))*u({{rmax}}-v(r)))}"
    Error: undefined symbol in: "(-(alpha)*((([v](1)-v(2))-(vtl))/((gamma)+abs((v(1)-v(2))-(vtl))))*u(-(v(1)-v(2))+(vtl))-(beta)*(v(1)-v(2))*u((v(1)-v(2))-(vtl))*u(-(v(1)-v(2))+(vtr))-(alpha)*(((v(1)-v(2))-(vtr))/((gamma)+abs((v(1)-v(2))-(vtr))))*u((v(1)-v(2))-(vtr)))*(u(v(1)-v(2))*u(v(r)-((rmin)))+u(-(v(1)-v(2)))*u(((rmax))-v(r)))"
Direct Newton iteration for .op point succeeded.
Ignoring empty pin current: Ix(u1:1)
Ignoring empty pin current: Ix(u1:2)
Ignoring empty pin current: Ix(u1:3)
Ignoring empty pin current: Ix(u2:1)
Ignoring empty pin current: Ix(u2:2)
Ignoring empty pin current: Ix(u2:3)
Ignoring empty pin current: Ix(x1:1)
Ignoring empty pin current: Ix(x1:2)
Ignoring empty pin current: Ix(x2:1)
Ignoring empty pin current: Ix(x2:2)
Ignoring empty pin current: Ix(u3:1)
Ignoring empty pin current: Ix(u3:2)
Ignoring empty pin current: Ix(u3:3)
Ignoring empty pin current: Ix(u3:4)
Ignoring empty pin current: Ix(u3:5)
Ignoring empty pin current: Ix(u4:1)
Ignoring empty pin current: Ix(u4:2)
Ignoring empty pin current: Ix(u4:3)
Ignoring empty pin current: Ix(u4:4)
Ignoring empty pin current: Ix(u4:5)
Ignoring empty pin current: Ix(u5:1)
Ignoring empty pin current: Ix(u5:2)
Ignoring empty pin current: Ix(u5:3)
Ignoring empty pin current: Ix(u5:4)
Ignoring empty pin current: Ix(u5:5)
Ignoring empty pin current: Ix(u1:1)
Ignoring empty pin current: Ix(u1:2)
Ignoring empty pin current: Ix(u1:3)
Ignoring empty pin current: Ix(u2:1)
Ignoring empty pin current: Ix(u2:2)
Ignoring empty pin current: Ix(u2:3)
Ignoring empty pin current: Ix(x1:1)
Ignoring empty pin current: Ix(x1:2)
Ignoring empty pin current: Ix(x2:1)
Ignoring empty pin current: Ix(x2:2)
Ignoring empty pin current: Ix(u3:1)
Ignoring empty pin current: Ix(u3:2)
Ignoring empty pin current: Ix(u3:3)
Ignoring empty pin current: Ix(u3:4)
Ignoring empty pin current: Ix(u3:5)
Ignoring empty pin current: Ix(u4:1)
Ignoring empty pin current: Ix(u4:2)
Ignoring empty pin current: Ix(u4:3)
Ignoring empty pin current: Ix(u4:4)
Ignoring empty pin current: Ix(u4:5)
Ignoring empty pin current: Ix(u5:1)
Ignoring empty pin current: Ix(u5:2)
Ignoring empty pin current: Ix(u5:3)
Ignoring empty pin current: Ix(u5:4)
Ignoring empty pin current: Ix(u5:5)

Date: Tue Jun 20 14:36:15 2023
Total elapsed time: 0.940 seconds.

tnom = 27
temp = 27
method = modified trap
totiter = 4211
traniter = 4181
tranpoints = 1683
accept = 1584
rejected = 99
matrix size = 20
fillins = 0
solver = Normal
Avg thread counts: 1.3/1.7/1.8/1.3
Matrix Compiler1: 1.31 KB object code size  0.8/0.6/[0.2]
Matrix Compiler2: 1.93 KB object code size  0.4/0.7/[0.4]

