Circuit: * C:\Users\pavlos\AppData\Local\LTspice\my\schematics\Hybrid\NOR_2\nor_block.asc

Questionable use of curly braces in "bpm 1 2  i={(v(1)-v(2))/(({{fo}}*exp(2*({lo}-{lo}*{m}/(v(r)))))/({lo}-{lo}*{m}/(v(r))))}"
    Error: undefined symbol in: "([v](1)-v(2))/((((fo))*exp(2*((lo)-(lo)*(m)/(v(r)))))/((lo)-(lo)*(m)/(v(r))))"
Questionable use of curly braces in "br 0 r  i={(-{alpha}*(((v(1)-v(2))-{vtl})/({gamma}+abs((v(1)-v(2))-{vtl})))*u(-(v(1)-v(2))+{vtl})-{beta}*(v(1)-v(2))*u((v(1)-v(2))-{vtl})*u(-(v(1)-v(2))+{vtr})-{alpha}*(((v(1)-v(2))-{vtr})/({gamma}+abs((v(1)-v(2))-{vtr})))*u((v(1)-v(2))-{vtr}))*(u(v(1)-v(2))*u(v(r)-{{rmin}})+u(-(v(1)-v(2)))*u({{rmax}}-v(r)))}"
    Error: undefined symbol in: "(-(alpha)*((([v](1)-v(2))-(vtl))/((gamma)+abs((v(1)-v(2))-(vtl))))*u(-(v(1)-v(2))+(vtl))-(beta)*(v(1)-v(2))*u((v(1)-v(2))-(vtl))*u(-(v(1)-v(2))+(vtr))-(alpha)*(((v(1)-v(2))-(vtr))/((gamma)+abs((v(1)-v(2))-(vtr))))*u((v(1)-v(2))-(vtr)))*(u(v(1)-v(2))*u(v(r)-((rmin)))+u(-(v(1)-v(2)))*u(((rmax))-v(r)))"
Questionable use of curly braces in "bpm 1 2  i={(v(1)-v(2))/(({{fo}}*exp(2*({lo}-{lo}*{m}/(v(r)))))/({lo}-{lo}*{m}/(v(r))))}"
    Error: undefined symbol in: "([v](1)-v(2))/((((fo))*exp(2*((lo)-(lo)*(m)/(v(r)))))/((lo)-(lo)*(m)/(v(r))))"
Questionable use of curly braces in "br 0 r  i={(-{alpha}*(((v(1)-v(2))-{vtl})/({gamma}+abs((v(1)-v(2))-{vtl})))*u(-(v(1)-v(2))+{vtl})-{beta}*(v(1)-v(2))*u((v(1)-v(2))-{vtl})*u(-(v(1)-v(2))+{vtr})-{alpha}*(((v(1)-v(2))-{vtr})/({gamma}+abs((v(1)-v(2))-{vtr})))*u((v(1)-v(2))-{vtr}))*(u(v(1)-v(2))*u(v(r)-{{rmin}})+u(-(v(1)-v(2)))*u({{rmax}}-v(r)))}"
    Error: undefined symbol in: "(-(alpha)*((([v](1)-v(2))-(vtl))/((gamma)+abs((v(1)-v(2))-(vtl))))*u(-(v(1)-v(2))+(vtl))-(beta)*(v(1)-v(2))*u((v(1)-v(2))-(vtl))*u(-(v(1)-v(2))+(vtr))-(alpha)*(((v(1)-v(2))-(vtr))/((gamma)+abs((v(1)-v(2))-(vtr))))*u((v(1)-v(2))-(vtr)))*(u(v(1)-v(2))*u(v(r)-((rmin)))+u(-(v(1)-v(2)))*u(((rmax))-v(r)))"
Direct Newton iteration for .op point succeeded.
Ignoring empty pin current: Ix(u1:1)
Ignoring empty pin current: Ix(u1:2)
Ignoring empty pin current: Ix(u1:3)
Ignoring empty pin current: Ix(u2:1)
Ignoring empty pin current: Ix(u2:2)
Ignoring empty pin current: Ix(u2:3)
Ignoring empty pin current: Ix(x1:1)
Ignoring empty pin current: Ix(x1:2)
Ignoring empty pin current: Ix(x2:1)
Ignoring empty pin current: Ix(x2:2)
Ignoring empty pin current: Ix(u1:1)
Ignoring empty pin current: Ix(u1:2)
Ignoring empty pin current: Ix(u1:3)
Ignoring empty pin current: Ix(u2:1)
Ignoring empty pin current: Ix(u2:2)
Ignoring empty pin current: Ix(u2:3)
Ignoring empty pin current: Ix(x1:1)
Ignoring empty pin current: Ix(x1:2)
Ignoring empty pin current: Ix(x2:1)
Ignoring empty pin current: Ix(x2:2)

Date: Tue Jun 20 14:04:48 2023
Total elapsed time: 0.337 seconds.

tnom = 27
temp = 27
method = modified trap
totiter = 4948
traniter = 4938
tranpoints = 2199
accept = 2010
rejected = 189
matrix size = 10
fillins = 0
solver = Normal
Avg thread counts: 1.3/1.6/1.6/1.3
Matrix Compiler1: 382 bytes object code size  0.3/0.3/[0.2]
Matrix Compiler2: 754 bytes object code size  0.3/0.5/[0.2]

