Circuit: * C:\Users\pavlos\AppData\Local\LTspice\my\schematics\Hybrid\memristor\Simulation _w_lib_file.asc

Questionable use of curly braces in "bpm 1 2  i={(v(1)-v(2))/(({{fo}}*exp(2*({lo}-{lo}*{m}/(v(r)))))/({lo}-{lo}*{m}/(v(r))))}"
    Error: undefined symbol in: "([v](1)-v(2))/((((fo))*exp(2*((lo)-(lo)*(m)/(v(r)))))/((lo)-(lo)*(m)/(v(r))))"
Questionable use of curly braces in "br 0 r  i={(-{alpha}*(((v(1)-v(2))-{vtl})/({gamma}+abs((v(1)-v(2))-{vtl})))*u(-(v(1)-v(2))+{vtl})-{beta}*(v(1)-v(2))*u((v(1)-v(2))-{vtl})*u(-(v(1)-v(2))+{vtr})-{alpha}*(((v(1)-v(2))-{vtr})/({gamma}+abs((v(1)-v(2))-{vtr})))*u((v(1)-v(2))-{vtr}))*(u(v(1)-v(2))*u(v(r)-{{rmin}})+u(-(v(1)-v(2)))*u({{rmax}}-v(r)))}"
    Error: undefined symbol in: "(-(alpha)*((([v](1)-v(2))-(vtl))/((gamma)+abs((v(1)-v(2))-(vtl))))*u(-(v(1)-v(2))+(vtl))-(beta)*(v(1)-v(2))*u((v(1)-v(2))-(vtl))*u(-(v(1)-v(2))+(vtr))-(alpha)*(((v(1)-v(2))-(vtr))/((gamma)+abs((v(1)-v(2))-(vtr))))*u((v(1)-v(2))-(vtr)))*(u(v(1)-v(2))*u(v(r)-((rmin)))+u(-(v(1)-v(2)))*u(((rmax))-v(r)))"
Direct Newton iteration for .op point succeeded.

Date: Sun Jun 18 23:35:36 2023
Total elapsed time: 0.053 seconds.

tnom = 27
temp = 27
method = modified trap
totiter = 2086
traniter = 2082
tranpoints = 1042
accept = 1042
rejected = 0
matrix size = 3
fillins = 0
solver = Normal
Avg thread counts: 1.1/1.3/1.3/1.1
Matrix Compiler1:       5 opcodes  0.1/[0.1]/0.1
Matrix Compiler2:      15 opcodes  0.1/[0.1]/0.1

