Circuit: * C:\Users\pavlos\AppData\Local\LTspice\my\schematics\CMOS\DFF_negedge\dff_block.asc

Direct Newton iteration for .op point succeeded.
Ignoring empty pin current: Ix(u1:1)
Ignoring empty pin current: Ix(u1:2)
Ignoring empty pin current: Ix(u1:3)
Ignoring empty pin current: Ix(u2:1)
Ignoring empty pin current: Ix(u2:2)
Ignoring empty pin current: Ix(u2:3)
Ignoring empty pin current: Ix(m1:1)
Ignoring empty pin current: Ix(m1:2)
Ignoring empty pin current: Ix(m1:3)
Ignoring empty pin current: Ix(m2:1)
Ignoring empty pin current: Ix(m2:2)
Ignoring empty pin current: Ix(m2:3)
Ignoring empty pin current: Ix(m3:1)
Ignoring empty pin current: Ix(m3:2)
Ignoring empty pin current: Ix(m3:3)
Ignoring empty pin current: Ix(m4:1)
Ignoring empty pin current: Ix(m4:2)
Ignoring empty pin current: Ix(m4:3)
Ignoring empty pin current: Ix(u4:1)
Ignoring empty pin current: Ix(u4:2)
Ignoring empty pin current: Ix(u4:3)
Ignoring empty pin current: Ix(u4:4)
Ignoring empty pin current: Ix(u4:5)
Ignoring empty pin current: Ix(u5:1)
Ignoring empty pin current: Ix(u5:2)
Ignoring empty pin current: Ix(u5:3)
Ignoring empty pin current: Ix(u5:4)
Ignoring empty pin current: Ix(u5:5)
Ignoring empty pin current: Ix(u6:1)
Ignoring empty pin current: Ix(u6:2)
Ignoring empty pin current: Ix(u6:3)
Ignoring empty pin current: Ix(u6:4)
Ignoring empty pin current: Ix(x1:1)
Ignoring empty pin current: Ix(x1:2)
Ignoring empty pin current: Ix(x1:3)
Ignoring empty pin current: Ix(x1:4)
Ignoring empty pin current: Ix(x1:5)
Ignoring empty pin current: Ix(x1:6)
Ignoring empty pin current: Ix(x2:1)
Ignoring empty pin current: Ix(x2:2)
Ignoring empty pin current: Ix(x2:3)
Ignoring empty pin current: Ix(x2:4)
Ignoring empty pin current: Ix(x2:5)
Ignoring empty pin current: Ix(x2:6)
Ignoring empty pin current: Ix(u1:1)
Ignoring empty pin current: Ix(u1:2)
Ignoring empty pin current: Ix(u1:3)
Ignoring empty pin current: Ix(u2:1)
Ignoring empty pin current: Ix(u2:2)
Ignoring empty pin current: Ix(u2:3)
Ignoring empty pin current: Ix(m1:1)
Ignoring empty pin current: Ix(m1:2)
Ignoring empty pin current: Ix(m1:3)
Ignoring empty pin current: Ix(m2:1)
Ignoring empty pin current: Ix(m2:2)
Ignoring empty pin current: Ix(m2:3)
Ignoring empty pin current: Ix(m3:1)
Ignoring empty pin current: Ix(m3:2)
Ignoring empty pin current: Ix(m3:3)
Ignoring empty pin current: Ix(m4:1)
Ignoring empty pin current: Ix(m4:2)
Ignoring empty pin current: Ix(m4:3)
Ignoring empty pin current: Ix(u4:1)
Ignoring empty pin current: Ix(u4:2)
Ignoring empty pin current: Ix(u4:3)
Ignoring empty pin current: Ix(u4:4)
Ignoring empty pin current: Ix(u4:5)
Ignoring empty pin current: Ix(u5:1)
Ignoring empty pin current: Ix(u5:2)
Ignoring empty pin current: Ix(u5:3)
Ignoring empty pin current: Ix(u5:4)
Ignoring empty pin current: Ix(u5:5)
Ignoring empty pin current: Ix(u6:1)
Ignoring empty pin current: Ix(u6:2)
Ignoring empty pin current: Ix(u6:3)
Ignoring empty pin current: Ix(u6:4)
Ignoring empty pin current: Ix(x1:1)
Ignoring empty pin current: Ix(x1:2)
Ignoring empty pin current: Ix(x1:3)
Ignoring empty pin current: Ix(x1:4)
Ignoring empty pin current: Ix(x1:5)
Ignoring empty pin current: Ix(x1:6)
Ignoring empty pin current: Ix(x2:1)
Ignoring empty pin current: Ix(x2:2)
Ignoring empty pin current: Ix(x2:3)
Ignoring empty pin current: Ix(x2:4)
Ignoring empty pin current: Ix(x2:5)
Ignoring empty pin current: Ix(x2:6)
Changing Tseed to 5e-10
Changing Tseed to 5e-12
Changing Tseed to 5e-09
Changing Tseed to 5e-13

Date: Tue Jun 13 21:28:24 2023
Total elapsed time: 13.272 seconds.

tnom = 27
temp = 27
method = modified trap
totiter = 10495
traniter = 10473
tranpoints = 2402
accept = 2122
rejected = 276
matrix size = 25
fillins = 26
solver = Normal
Avg thread counts: 1.0/1.1/1.1/1.0
Matrix Compiler1: 4.02 KB object code size  1.1/0.8/[0.3]
Matrix Compiler2: 3.24 KB object code size  0.6/0.8/[0.4]

