Circuit: * C:\Users\pavlos\AppData\Local\LTspice\my\schematics\Hybrid\D_latch\d_block.asc

Questionable use of curly braces in "bpm 1 2  i={(v(1)-v(2))/(({{fo}}*exp(2*({lo}-{lo}*{m}/(v(r)))))/({lo}-{lo}*{m}/(v(r))))}"
    Error: undefined symbol in: "([v](1)-v(2))/((((fo))*exp(2*((lo)-(lo)*(m)/(v(r)))))/((lo)-(lo)*(m)/(v(r))))"
Questionable use of curly braces in "br 0 r  i={(-{alpha}*(((v(1)-v(2))-{vtl})/({gamma}+abs((v(1)-v(2))-{vtl})))*u(-(v(1)-v(2))+{vtl})-{beta}*(v(1)-v(2))*u((v(1)-v(2))-{vtl})*u(-(v(1)-v(2))+{vtr})-{alpha}*(((v(1)-v(2))-{vtr})/({gamma}+abs((v(1)-v(2))-{vtr})))*u((v(1)-v(2))-{vtr}))*(u(v(1)-v(2))*u(v(r)-{{rmin}})+u(-(v(1)-v(2)))*u({{rmax}}-v(r)))}"
    Error: undefined symbol in: "(-(alpha)*((([v](1)-v(2))-(vtl))/((gamma)+abs((v(1)-v(2))-(vtl))))*u(-(v(1)-v(2))+(vtl))-(beta)*(v(1)-v(2))*u((v(1)-v(2))-(vtl))*u(-(v(1)-v(2))+(vtr))-(alpha)*(((v(1)-v(2))-(vtr))/((gamma)+abs((v(1)-v(2))-(vtr))))*u((v(1)-v(2))-(vtr)))*(u(v(1)-v(2))*u(v(r)-((rmin)))+u(-(v(1)-v(2)))*u(((rmax))-v(r)))"
Questionable use of curly braces in "bpm 1 2  i={(v(1)-v(2))/(({{fo}}*exp(2*({lo}-{lo}*{m}/(v(r)))))/({lo}-{lo}*{m}/(v(r))))}"
    Error: undefined symbol in: "([v](1)-v(2))/((((fo))*exp(2*((lo)-(lo)*(m)/(v(r)))))/((lo)-(lo)*(m)/(v(r))))"
Questionable use of curly braces in "br 0 r  i={(-{alpha}*(((v(1)-v(2))-{vtl})/({gamma}+abs((v(1)-v(2))-{vtl})))*u(-(v(1)-v(2))+{vtl})-{beta}*(v(1)-v(2))*u((v(1)-v(2))-{vtl})*u(-(v(1)-v(2))+{vtr})-{alpha}*(((v(1)-v(2))-{vtr})/({gamma}+abs((v(1)-v(2))-{vtr})))*u((v(1)-v(2))-{vtr}))*(u(v(1)-v(2))*u(v(r)-{{rmin}})+u(-(v(1)-v(2)))*u({{rmax}}-v(r)))}"
    Error: undefined symbol in: "(-(alpha)*((([v](1)-v(2))-(vtl))/((gamma)+abs((v(1)-v(2))-(vtl))))*u(-(v(1)-v(2))+(vtl))-(beta)*(v(1)-v(2))*u((v(1)-v(2))-(vtl))*u(-(v(1)-v(2))+(vtr))-(alpha)*(((v(1)-v(2))-(vtr))/((gamma)+abs((v(1)-v(2))-(vtr))))*u((v(1)-v(2))-(vtr)))*(u(v(1)-v(2))*u(v(r)-((rmin)))+u(-(v(1)-v(2)))*u(((rmax))-v(r)))"
Error: unknown token in: "((v(u1:n001)-v([~]q))/(( 310 *exp(2*( 5 - 5 * 82 /(v(u1:u1:x2:r)))))/( 5 - 5 * 82 /(v(u1:u1:x2:r)))))"
Error: unknown token in: "((- 1000000000 *(((v(u1:n001)-v([~]q))- -1.5 )/( 0.1 +abs((v(u1:n001)-v(~q))- -1.5 )))*u(-(v(u1:n001)-v(~q))+ -1.5 )- 0 *(v(u1:n001)-v(~q))*u((v(u1:n001)-v(~q))- -1.5 )*u(-(v(u1:n001)-v(~q))+ 1.5 )- 1000000000 *(((v(u1:n001)-v(~q))- 1.5 )/( 0.1 +abs((v(u1:n001)-v(~q))- 1.5 )))*u((v(u1:n001)-v(~q))- 1.5 ))*(u(v(u1:n001)-v(~q))*u(v(u1:u1:x2:r)- 100 )+u(-(v(u1:n001)-v(~q)))*u( 390 -v(u1:u1:x2:r))))"
Direct Newton iteration for .op point succeeded.
Ignoring empty pin current: Ix(u1:1)
Ignoring empty pin current: Ix(u1:2)
Ignoring empty pin current: Ix(u1:3)
Ignoring empty pin current: Ix(u2:1)
Ignoring empty pin current: Ix(u2:2)
Ignoring empty pin current: Ix(u2:3)
Ignoring empty pin current: Ix(x1:1)
Ignoring empty pin current: Ix(x1:2)
Ignoring empty pin current: Ix(x2:1)
Ignoring empty pin current: Ix(x2:2)
Ignoring empty pin current: Ix(u4:1)
Ignoring empty pin current: Ix(u4:2)
Ignoring empty pin current: Ix(u4:3)
Ignoring empty pin current: Ix(u4:4)
Ignoring empty pin current: Ix(u4:5)
Ignoring empty pin current: Ix(u5:1)
Ignoring empty pin current: Ix(u5:2)
Ignoring empty pin current: Ix(u5:3)
Ignoring empty pin current: Ix(u5:4)
Ignoring empty pin current: Ix(u5:5)
Ignoring empty pin current: Ix(u6:1)
Ignoring empty pin current: Ix(u6:2)
Ignoring empty pin current: Ix(u6:3)
Ignoring empty pin current: Ix(u6:4)
Ignoring empty pin current: Ix(u1:1)
Ignoring empty pin current: Ix(u1:2)
Ignoring empty pin current: Ix(u1:3)
Ignoring empty pin current: Ix(u2:1)
Ignoring empty pin current: Ix(u2:2)
Ignoring empty pin current: Ix(u2:3)
Ignoring empty pin current: Ix(x1:1)
Ignoring empty pin current: Ix(x1:2)
Ignoring empty pin current: Ix(x2:1)
Ignoring empty pin current: Ix(x2:2)
Ignoring empty pin current: Ix(u4:1)
Ignoring empty pin current: Ix(u4:2)
Ignoring empty pin current: Ix(u4:3)
Ignoring empty pin current: Ix(u4:4)
Ignoring empty pin current: Ix(u4:5)
Ignoring empty pin current: Ix(u5:1)
Ignoring empty pin current: Ix(u5:2)
Ignoring empty pin current: Ix(u5:3)
Ignoring empty pin current: Ix(u5:4)
Ignoring empty pin current: Ix(u5:5)
Ignoring empty pin current: Ix(u6:1)
Ignoring empty pin current: Ix(u6:2)
Ignoring empty pin current: Ix(u6:3)
Ignoring empty pin current: Ix(u6:4)

Date: Tue Jun 20 14:10:49 2023
Total elapsed time: 1.416 seconds.

tnom = 27
temp = 27
method = modified trap
totiter = 3898
traniter = 3891
tranpoints = 1843
accept = 1715
rejected = 128
matrix size = 23
fillins = 2
solver = Normal
Avg thread counts: 2.9/1.7/1.7/1.3
Matrix Compiler1: 1.71 KB object code size  0.9/0.7/[0.3]
Matrix Compiler2: 2.28 KB object code size  0.6/0.9/[0.3]

