Circuit: * C:\Users\pavlos\AppData\Local\LTspice\my\schematics\Hybrid\AND_2\and_block.asc

Questionable use of curly braces in "bpm 1 2  i={(v(1)-v(2))/(({{fo}}*exp(2*({lo}-{lo}*{m}/(v(r)))))/({lo}-{lo}*{m}/(v(r))))}"
    Error: undefined symbol in: "([v](1)-v(2))/((((fo))*exp(2*((lo)-(lo)*(m)/(v(r)))))/((lo)-(lo)*(m)/(v(r))))"
Questionable use of curly braces in "br 0 r  i={(-{alpha}*(((v(1)-v(2))-{vtl})/({gamma}+abs((v(1)-v(2))-{vtl})))*u(-(v(1)-v(2))+{vtl})-{beta}*(v(1)-v(2))*u((v(1)-v(2))-{vtl})*u(-(v(1)-v(2))+{vtr})-{alpha}*(((v(1)-v(2))-{vtr})/({gamma}+abs((v(1)-v(2))-{vtr})))*u((v(1)-v(2))-{vtr}))*(u(v(1)-v(2))*u(v(r)-{{rmin}})+u(-(v(1)-v(2)))*u({{rmax}}-v(r)))}"
    Error: undefined symbol in: "(-(alpha)*((([v](1)-v(2))-(vtl))/((gamma)+abs((v(1)-v(2))-(vtl))))*u(-(v(1)-v(2))+(vtl))-(beta)*(v(1)-v(2))*u((v(1)-v(2))-(vtl))*u(-(v(1)-v(2))+(vtr))-(alpha)*(((v(1)-v(2))-(vtr))/((gamma)+abs((v(1)-v(2))-(vtr))))*u((v(1)-v(2))-(vtr)))*(u(v(1)-v(2))*u(v(r)-((rmin)))+u(-(v(1)-v(2)))*u(((rmax))-v(r)))"
Questionable use of curly braces in "bpm 1 2  i={(v(1)-v(2))/(({{fo}}*exp(2*({lo}-{lo}*{m}/(v(r)))))/({lo}-{lo}*{m}/(v(r))))}"
    Error: undefined symbol in: "([v](1)-v(2))/((((fo))*exp(2*((lo)-(lo)*(m)/(v(r)))))/((lo)-(lo)*(m)/(v(r))))"
Questionable use of curly braces in "br 0 r  i={(-{alpha}*(((v(1)-v(2))-{vtl})/({gamma}+abs((v(1)-v(2))-{vtl})))*u(-(v(1)-v(2))+{vtl})-{beta}*(v(1)-v(2))*u((v(1)-v(2))-{vtl})*u(-(v(1)-v(2))+{vtr})-{alpha}*(((v(1)-v(2))-{vtr})/({gamma}+abs((v(1)-v(2))-{vtr})))*u((v(1)-v(2))-{vtr}))*(u(v(1)-v(2))*u(v(r)-{{rmin}})+u(-(v(1)-v(2)))*u({{rmax}}-v(r)))}"
    Error: undefined symbol in: "(-(alpha)*((([v](1)-v(2))-(vtl))/((gamma)+abs((v(1)-v(2))-(vtl))))*u(-(v(1)-v(2))+(vtl))-(beta)*(v(1)-v(2))*u((v(1)-v(2))-(vtl))*u(-(v(1)-v(2))+(vtr))-(alpha)*(((v(1)-v(2))-(vtr))/((gamma)+abs((v(1)-v(2))-(vtr))))*u((v(1)-v(2))-(vtr)))*(u(v(1)-v(2))*u(v(r)-((rmin)))+u(-(v(1)-v(2)))*u(((rmax))-v(r)))"
WARNING: Less than two connections to node vdd.  This node is used by v1.
Direct Newton iteration for .op point succeeded.
Ignoring empty pin current: Ix(x1:1)
Ignoring empty pin current: Ix(x1:2)
Ignoring empty pin current: Ix(x2:1)
Ignoring empty pin current: Ix(x2:2)
Ignoring empty pin current: Ix(x1:1)
Ignoring empty pin current: Ix(x1:2)
Ignoring empty pin current: Ix(x2:1)
Ignoring empty pin current: Ix(x2:2)

Date: Sun Jun 18 23:43:03 2023
Total elapsed time: 0.125 seconds.

tnom = 27
temp = 27
method = modified trap
totiter = 5088
traniter = 5085
tranpoints = 2383
accept = 2176
rejected = 207
matrix size = 9
fillins = 0
solver = Normal
Avg thread counts: 1.1/1.1/1.1/1.1
Matrix Compiler1:      17 opcodes  0.1/[0.1]/0.2
Matrix Compiler2: off  [0.1]/0.1/0.2

