Circuit: * C:\Users\pavlos\AppData\Local\LTspice\my\schematics\CMOS\NOT_CMOS\not_block.asc

Direct Newton iteration for .op point succeeded.
Ignoring empty pin current: Ix(u1:1)
Ignoring empty pin current: Ix(u1:2)
Ignoring empty pin current: Ix(u1:3)
Ignoring empty pin current: Ix(u2:1)
Ignoring empty pin current: Ix(u2:2)
Ignoring empty pin current: Ix(u2:3)
Ignoring empty pin current: Ix(u1:1)
Ignoring empty pin current: Ix(u1:2)
Ignoring empty pin current: Ix(u1:3)
Ignoring empty pin current: Ix(u2:1)
Ignoring empty pin current: Ix(u2:2)
Ignoring empty pin current: Ix(u2:3)

Date: Sun Jun 11 01:44:55 2023
Total elapsed time: 0.142 seconds.

tnom = 27
temp = 27
method = modified trap
totiter = 1221
traniter = 1211
tranpoints = 472
accept = 435
rejected = 37
matrix size = 5
fillins = 0
solver = Normal
Avg thread counts: 1.2/1.6/1.6/1.2
Matrix Compiler1:       8 opcodes  0.1/[0.0]/0.1
Matrix Compiler2:      28 opcodes  0.1/[0.1]/0.1

