Circuit: * C:\Users\pavlos\AppData\Local\LTspice\local\my\schematics\CMOS\NMOS\nmos_block.asc

Direct Newton iteration for .op point succeeded.

Date: Wed Apr 19 11:50:18 2023
Total elapsed time: 0.061 seconds.

tnom = 27
temp = 27
method = modified trap
totiter = 560
traniter = 556
tranpoints = 279
accept = 279
rejected = 0
matrix size = 5
fillins = 0
solver = Normal
Avg thread counts: 2.2/3.3/3.3/2.2
Matrix Compiler1:       7 opcodes  0.1/[0.0]/0.1
Matrix Compiler2:      26 opcodes  0.1/[0.1]/0.1

