LTspice 24.0.9 for Windows
Circuit: * C:\Users\Pavlos\source\repos\ltspice-circuits\BJT\NOT\not_block.asc
Start Time: Tue Apr 30 12:30:04 2024
Warning: Multiple definitions of model "2scr375p" Type: BJT
Warning: Multiple definitions of model "bc857b" Type: BJT
Warning: Multiple definitions of model "bc847c" Type: BJT
Warning: Multiple definitions of model "bc847b" Type: BJT
solver = Normal
Maximum thread count: 4
tnom = 27
temp = 27
method = modified trap
Direct Newton iteration for .op point succeeded.
Total elapsed time: 0.204 seconds.

